54
Lattice="10.60360051687816 0.0 0.0 -5.30180025843908 9.18298708734691 0.0 0.0 0.0 6.094999842719125" Properties=species:S:1:pos:R:3 pbc="T T T"
C        1.32901916      -3.06099637       2.53960358
C        1.98638992       2.68146250       2.53960358
C       -3.31541097       0.37953289       2.53960358
C        1.32901980       3.06099536       0.50789634
C        1.98639055      -2.68146326       0.50789634
C       -3.31541034      -0.37953361       0.50789634
C       -1.32901980       3.06099536      -2.53960358
C       -1.98639055      -2.68146326      -2.53960358
C        3.31541034      -0.37953361      -2.53960358
C       -1.32902043      -3.06099637      -0.50789659
C       -1.98639080       2.68146250      -0.50789659
C        3.31540971       0.37953289      -0.50789659
C       -3.97278109       0.00000000      -1.52372965
C        1.98639055      -3.44052897      -1.52372965
C        1.98638992       3.44052822      -1.52372965
C        3.97277983       0.00000000       1.52372952
C       -1.98638992       3.44052822       1.52372952
C       -1.98639055      -3.44052897       1.52372952
C       -2.34122244      -4.03124021       2.86842868
C        4.66176701      -0.01193830       2.86842868
C       -2.32054463       4.04317700       2.86842868
C       -2.34122319       4.03123920       0.17907108
C        4.66176631       0.01193792       0.17907108
C       -2.32054539      -4.04317801       0.17907108
C        2.34122168       4.03123920      -2.86842894
C       -4.66176783       0.01193792      -2.86842894
C        2.32054413      -4.04317801      -2.86842894
C        2.34122244      -4.03124021      -0.17907149
C       -4.66176701      -0.01193830      -0.17907149
C        2.32054463       4.04317700      -0.17907149
C        2.96057858      -0.97024435      -1.19490455
C       -2.34122319       2.09075177       0.83676213
C       -0.64003325       3.04905757      -1.19490455
C       -0.64003395      -3.07293416       0.83676213
C       -2.32054539      -2.07881473      -1.19490455
C        2.98125487       0.98218164       0.83676213
C       -2.34122244      -2.09075253       2.21073760
C        2.96057782       0.97024372      -1.85259563
C       -0.64003325       3.07293316       2.21073760
C       -0.64003395      -3.04905857      -1.85259563
C        2.98125562      -0.98218215       2.21073760
C       -2.32054615       2.07881384      -1.85259563
C        2.34122244      -2.09075253      -0.83676258
C       -2.96057909       0.97024372       1.19490429
C        0.64003325       3.07293316      -0.83676258
C        0.64003243      -3.04905857       1.19490429
C       -2.98125562      -0.98218215      -0.83676258
C        2.32054463       2.07881384       1.19490429
C       -2.96057858      -0.97024435       1.85259550
C        2.34122168       2.09075177      -2.21073785
C        0.64003325       3.04905757       1.85259550
C        0.64003243      -3.07293416      -2.21073785
C        2.32054539      -2.07881473       1.85259550
C       -2.98125613       0.98218164      -2.21073785
