16
Lattice="2.4847000621020596 0.0 0.0 0.0 5.679800201571934 0.0 0.0 0.0 10.77060047439819" Properties=species:S:1:pos:R:3 pbc="T T T"
C       -1.24235016       0.00000000      -3.89928151
C       -1.24235016       0.00000000       3.89928000
C        0.00000000      -2.83990035       1.48601961
C        0.00000000      -2.83990035      -1.48602075
C       -1.24235016       1.16890268      -2.91721796
C       -1.24235016      -1.16890331      -2.91721796
C       -1.24235016      -1.16890331       2.91721670
C       -1.24235016       1.16890268       2.91721670
C        0.00000000      -1.67099780       2.46808278
C        0.00000000       1.67099704       2.46808278
C        0.00000000       1.67099704      -2.46808429
C        0.00000000      -1.67099780      -2.46808429
C        0.00000000       0.00000000      -4.71860092
C        0.00000000       0.00000000       4.71859941
C       -1.24235016      -2.83990035       0.66670007
C       -1.24235016      -2.83990035      -0.66670083
