16
Lattice="4.245740538674421 0.0 -0.022453199192717228 0.0 2.52359996880169 0.0 0.0 0.0 8.625600240365587" Properties=species:S:1:pos:R:3 pbc="T T T"
C        2.06967112      -1.26179998      -2.35624650
C       -2.06967125      -1.26179998       2.35624574
C        1.53899595      -1.26179998      -3.81194256
C       -1.53899620      -1.26179998       3.81194180
C       -0.71727560      -1.26179998       0.21537919
C        0.71727535      -1.26179998      -0.21537995
C        0.71150112      -1.26179998      -1.71292619
C       -0.71150150      -1.26179998       1.71292530
C        0.05464268       0.00000000      -2.29444045
C       -0.05464286       0.00000000       2.29443970
C       -1.42075246       0.00000000      -0.29472833
C        1.42075208       0.00000000       0.29472748
C       -0.58799288       0.00000000       3.79733813
C        0.58799256       0.00000000      -3.79733914
C       -1.42631435       0.00000000      -1.89259141
C        1.42631397       0.00000000       1.89259040
